FourDayCourse/Demos/4.4 Generator Examples/IEEE_13_house_batt_dist.glm
//Input feeder information for IEEE 13 node with different cases.
//Started on 10/21/09. This version created 20-Oct-2010 09:29:29.

clock {
     timezone PST+8PDT;
     starttime '2000-08-01 00:00:00';
     stoptime '2000-08-02 00:00:00';
}

#include "light_schedule.glm";
#include "water_and_setpoint_schedule.glm";
#include "battery_schedule.glm";
#define stylesheet=http://gridlab-d.svn.sourceforge.net/viewvc/gridlab-d/trunk/core/gridlabd-2_0
#set minimum_timestep=60;
#set profiler=1;
#set relax_naming_rules=1;

module tape;
module climate;
module residential {
     implicit_enduses NONE;
};
module generators;
module powerflow {
     solver_method FBS;
     NR_iteration_limit 50;
};

object climate {
     name "Seattle WA";
     tmyfile "WA-Seattle.tmy2";
     interpolate QUADRATIC;
};

//Configurations

object overhead_line_conductor {     
      name overhead_line_conductor_6010;     
      geometric_mean_radius 0.031300;     
      resistance 0.185900;     
}       

object overhead_line_conductor {     
      name overhead_line_conductor_6020;     
      geometric_mean_radius 0.00814;     
      resistance 0.592000;     
}       

object overhead_line_conductor {     
      name overhead_line_conductor_6030;     
      geometric_mean_radius 0.004460;     
      resistance 1.120000;     
}       

object underground_line_conductor {     
      name underground_line_conductor_6060;     
      outer_diameter 1.290000;     
      conductor_gmr 0.017100;     
      conductor_diameter 0.567000;     
      conductor_resistance 0.410000;     
      neutral_gmr 0.0020800;     
      neutral_resistance 14.87200;     
      neutral_diameter 0.0640837;     
      neutral_strands 13.000000;     
      shield_gmr 0.000000;     
      shield_resistance 0.000000;     
}       

object underground_line_conductor {     
      name underground_line_conductor_6070;     
      outer_diameter 1.060000;     
      conductor_gmr 0.011100;     
      conductor_diameter 0.368000;     
      conductor_resistance 0.970000;     
      neutral_gmr 0.011100;     
      neutral_resistance 0.970000;     
      neutral_diameter 0.0640837;     
      neutral_strands 6.000000;     
      shield_gmr 0.000000;     
      shield_resistance 0.000000;     
}       

object line_spacing {     
      name line_spacing_500601;     
      distance_AB 2.5;     
      distance_AC 4.5;     
      distance_BC 7.0;     
      distance_BN 5.656854;     
      distance_AN 4.272002;     
      distance_CN 5.0;     
}       

object line_spacing {     
      name line_spacing_500602;     
      distance_AC 2.5;     
      distance_AB 4.5;     
      distance_BC 7.0;     
      distance_CN 5.656854;     
      distance_AN 4.272002;     
      distance_BN 5.0;     
}       

object line_spacing {     
      name line_spacing_505603;     
      distance_AC 0.0;     
      distance_AB 0.0;     
      distance_BC 7.0;     
      distance_AN 0.0;     
      distance_CN 5.656854;     
      distance_BN 5.0;     
}       

object line_spacing {     
      name line_spacing_505604;     
      distance_AC 7.0;     
      distance_AB 0.0;     
      distance_BC 0.0;     
      distance_AN 5.656854;     
      distance_CN 5.0;     
      distance_BN 0.0;     
}       

object line_spacing {     
      name line_spacing_510;     
      distance_AC 0.0;     
      distance_AB 0.0;     
      distance_BC 0.0;     
      distance_AN 0.0;     
      distance_CN 5.0;     
      distance_BN 0.0;     
}       

object line_configuration {     
      name line_configuration_601;     
      conductor_A overhead_line_conductor_6010;     
      conductor_B overhead_line_conductor_6010;     
      conductor_C overhead_line_conductor_6010;     
      conductor_N overhead_line_conductor_6020;     
      spacing line_spacing_500601;     
}       

object line_configuration {     
      name line_configuration_602;     
      conductor_A overhead_line_conductor_6020;     
      conductor_B overhead_line_conductor_6020;     
      conductor_C overhead_line_conductor_6020;     
      conductor_N overhead_line_conductor_6020;     
      spacing line_spacing_500602;     
}       

object line_configuration {     
      name line_configuration_603;     
      conductor_B overhead_line_conductor_6030;     
      conductor_C overhead_line_conductor_6030;     
      conductor_N overhead_line_conductor_6030;     
      spacing line_spacing_505603;     
}       

object line_configuration {     
      name line_configuration_604;     
      conductor_A overhead_line_conductor_6030;     
      conductor_C overhead_line_conductor_6030;     
      conductor_N overhead_line_conductor_6030;     
      spacing line_spacing_505604;     
}       

object line_configuration {     
      name line_configuration_605;     
      conductor_C overhead_line_conductor_6030;     
      conductor_N overhead_line_conductor_6030;     
      spacing line_spacing_510;     
}       

object line_spacing {     
      name line_spacing_515;     
      distance_AB 0.500000;     
      distance_BC 0.500000;     
      distance_AC 1.000000;     
      distance_AN 0.000000;     
      distance_BN 0.000000;     
      distance_CN 0.000000;     
}       

object line_spacing {     
      name line_spacing_520;     
      distance_AB 0.000000;     
      distance_BC 0.000000;     
      distance_AC 0.000000;     
      distance_AN 0.083333;     
      distance_BN 0.000000;     
      distance_CN 0.000000;     
}       

object line_configuration {     
      name line_configuration_606;     
      conductor_A underground_line_conductor_6060;     
      conductor_B underground_line_conductor_6060;     
      conductor_C underground_line_conductor_6060;     
      spacing line_spacing_515;     
}       

object line_configuration {     
      name line_configuration_607;     
      conductor_A underground_line_conductor_6070;     
      conductor_N underground_line_conductor_6070;     
      spacing line_spacing_520;     
}       

object transformer_configuration {     
      name transformer_configuration_400;     
      connect_type WYE_WYE;     
      install_type PADMOUNT;     
      power_rating 500;     
      primary_voltage 4160;     
      secondary_voltage 480;     
      resistance 0.011;     
      reactance 0.02;     
}       

object regulator_configuration {     
      name regulator_configuration_6506321;     
      connect_type 1;     
      band_center 2401;     
      band_width 40;     
      time_delay 30.0;     
      raise_taps 16;     
      lower_taps 16;     
      current_transducer_ratio 700;     
      power_transducer_ratio 20;     
      compensator_r_setting_A 3.0;     
      compensator_r_setting_B 3.0;     
      compensator_r_setting_C 3.0;     
      compensator_x_setting_A 9.0;     
      compensator_x_setting_B 9.0;     
      compensator_x_setting_C 9.0;     
      CT_phase ABC;     
      PT_phase ABC;     
      regulation 0.10;     
      Control OUTPUT_VOLTAGE;     
      Type A;     
      tap_pos_A 1;     
      tap_pos_B 1;     
      tap_pos_C 1;     
}       

object transformer_configuration {
     name trans_config_to_feeder;
     connect_type WYE_WYE;
     install_type PADMOUNT;
     primary_voltage 33000;
     secondary_voltage 2401.777;
     power_rating 5 MVA;
     impedance 0.00033+0.0022j;
}

object node {
     name network_node;
     bustype SWING;
     nominal_voltage 33000;
     phases ABCN;
}

object transformer {
     name substation_transformer;
     object recorder {
          file IEEE_13_house_batt_dist_transformer_power.csv;
          interval 60;
          limit 1440;
          property power_in_A.real,power_in_A.imag,power_in_B.real,power_in_B.imag,power_in_C.real,power_in_C.imag,power_out_A.real,power_out_A.imag,power_out_B.real,power_out_B.imag,power_out_C.real,power_out_C.imag,power_losses_A.real,power_losses_A.imag;
     };
     groupid Distribution_Trans;
     from network_node;
     to 650;
     phases ABCN;
     configuration trans_config_to_feeder;
};       
object overhead_line {     
      groupid Distribution_Line;
      phases BCN;     
      name 632-645;     
      from 632;     
      to 645;     
      length 500;     
      configuration line_configuration_603;     
}       
object overhead_line {     
      groupid Distribution_Line;
      phases BCN;     
      name 645-646;     
      from 645;     
      to 646;     
      length 300;     
      configuration line_configuration_603;     
}       
object overhead_line {     
      groupid Distribution_Line;
      phases ABCN;     
      name 630-632;     
      from 630;     
      to 632;     
      length 2000;     
      configuration line_configuration_601;     
}       
object overhead_line {     
      groupid Distribution_Line;
      phases ABCN;     
      name 632-6321;     
      from 632;     
      to 6321;     
      length 500;     
      configuration line_configuration_601;     
}       
object overhead_line {     
      groupid Distribution_Line;
      phases ABCN;     
      name 6321-671;     
      from 6321;     
      to 671;     
      length 1500;     
      configuration line_configuration_601;     
}       
object overhead_line {     
      groupid Distribution_Line;
      phases ABCN;     
      name 671-680;     
      from 671;     
      to 680;     
      length 1000;     
      configuration line_configuration_601;     
}       
object overhead_line {     
      groupid Distribution_Line;
      phases ACN;     
      name 671-684;     
      from 671;     
      to 684;     
      length 300;     
      configuration line_configuration_604;     
}       
object overhead_line {     
      groupid Distribution_Line;
      phases CN;     
      name 684-611;     
      from 684;     
      to 611;     
      length 300;     
      configuration line_configuration_605;     
}       
object underground_line {     
      groupid Distribution_Line;
      phases AN;     
      name 684-652;     
      from 684;     
      to 652;     
      length 800;     
      configuration line_configuration_607;     
}       
object underground_line {     
      groupid Distribution_Line;
      phases ABC;     
      name 692-675;     
      from 692;     
      to 675;     
      length 2500;     
      configuration line_configuration_606;     
}       
object overhead_line {     
      groupid Distribution_Line;
      phases ABCN;     
      name 632-633;     
      from 632;     
      to 633;     
      length 500;     
      configuration line_configuration_602;     
}       
object node {     
      name 633;     
      phases ABCN;     
      voltage_A 2401.7771;     
      voltage_B -1200.8886-2080.000j;     
      voltage_C -1200.8886+2080.000j;     
      nominal_voltage 2401.7771;     
}       
object node {     
      name 630;     
      phases ABCN;     
      voltage_A 2401.7771+0j;     
      voltage_B -1200.8886-2080.000j;     
      voltage_C -1200.8886+2080.000j;     
      nominal_voltage 2401.7771;     
}       
object node {     
      name 632;     
      phases ABCN;     
      voltage_A 2401.7771;     
      voltage_B -1200.8886-2080.000j;     
      voltage_C -1200.8886+2080.000j;     
      nominal_voltage 2401.7771;     
}       
object node {     
      name 650;     
      phases ABCN;     
      voltage_A 2401.7771;     
      voltage_B -1200.8886-2080.000j;     
      voltage_C -1200.8886+2080.000j;     
      nominal_voltage 2401.7771;     
}       
object node {     
      name 680;     
      phases ABCN;     
      voltage_A 2401.7771;     
      voltage_B -1200.8886-2080.000j;     
      voltage_C -1200.8886+2080.000j;     
      nominal_voltage 2401.7771;     
}       
object node {     
      name 684;     
      phases ACN;     
      voltage_A 2401.7771;     
      voltage_B -1200.8886-2080.000j;     
      voltage_C -1200.8886+2080.000j;     
      nominal_voltage 2401.7771;     
}       
object node {     
      name 634;     
      phases ABCN;     
      voltage_A 480.000+0j;     
      voltage_B -240.000-415.6922j;     
      voltage_C -240.000+415.6922j;     
      nominal_voltage 480.000;     
}       

object node {
      name 645;     
      phases BCN;     
      nominal_voltage 2401.7771;     
}


object node {
      name 646;     
      phases BC;     
      nominal_voltage 2401.7771;     
}


object node {
      name 652;     
      phases AN;     
      nominal_voltage 2401.7771;     
}


object node {
      name 671;     
      phases ABC;     
      nominal_voltage 2401.7771;     
}


object node {
      name 675;     
      phases ABC;     
      nominal_voltage 2401.7771;     
}


object node {
      name 692;     
      phases ABC;     
      nominal_voltage 2401.7771;     
}


object node {
      name 611;     
      phases CN;     
      nominal_voltage 2401.7771;     
}


object node {
      name 6711;     
      parent 671;     
      phases ABC;     
      nominal_voltage 2401.7771;     
}


object node {
      name 6321;     
      phases ABCN;     
      nominal_voltage 2401.7771;     
}

object switch {     
      phases ABCN;     
      name 671-692;     
      from 671;     
      to 692;     
      status CLOSED;     
}       
object transformer {     
      groupid Distribution_Trans;
      phases ABCN;     
      name 633-634;     
      from 633;     
      to 634;     
      configuration transformer_configuration_400;     
}       
object regulator {     
      name Reg1;     
      phases ABC;     
      from 650;     
      to 630;     
      configuration regulator_configuration_6506321;     
}       
object capacitor {     
      phases ABCN;     
      name CAP1;     
      pt_phase ABCN;     
      parent 675;     
      phases_connected ABCN;     
      control VOLT;     
      voltage_set_high 2700.0;     
      voltage_set_low 2250.0;     
      capacitor_A 0.10 MVAr;    
      capacitor_B 0.10 MVAr;    
      capacitor_C 0.10 MVAr;    
      control_level INDIVIDUAL;     
      time_delay 300.0;     
      dwell_time 0.0;     
      switchA CLOSED;     
      switchB CLOSED;     
      switchC CLOSED;     
      nominal_voltage 2401.7771;     
}       
object capacitor {     
      phases ABCN;     
      name CAP2;     
      pt_phase ABCN;     
      parent 675;     
      phases_connected ABCN;     
      control VOLT;     
      voltage_set_high 2600.0;     
      voltage_set_low 2150.0;     
      capacitor_A 0.05 MVAr;    
      capacitor_B 0.05 MVAr;    
      capacitor_C 0.05 MVAr;    
      control_level INDIVIDUAL;     
      time_delay 300.0;     
      dwell_time 0.0;     
      switchA CLOSED;     
      switchB CLOSED;     
      switchC CLOSED;     
      nominal_voltage 2401.7771;     
}       
object triplex_line_configuration {
      name trip_line_config;
      conductor_1 object triplex_line_conductor {
            resistance 0.97;
            geometric_mean_radius 0.01111;
            };
      conductor_2 object triplex_line_conductor {
            resistance 0.97;
            geometric_mean_radius 0.01111;
            };
      conductor_N object triplex_line_conductor {
            resistance 0.97;
            geometric_mean_radius 0.01111;
            };
      insulation_thickness 0.08;
      diameter 0.368;
}
object transformer {
       name CTTF_B_645;
       phases BS;
       from 645;
       to tn_B_645;
       configuration object transformer_configuration {
            connect_type SINGLE_PHASE_CENTER_TAPPED;
            install_type POLETOP;
            shunt_impedance 10000+10000j;
            primary_voltage 2401.777;
            secondary_voltage 120;
            powerB_rating 110 kVA;
            impedance 0.00033+0.0022j;
       };
       groupid Distribution_Trans;
}

object triplex_meter {
       name tn_B_645;
       phases BS;
       nominal_voltage 120;
}

object triplex_line {
       name tl_B_1_645;
       phases BS;
       from tn_B_645;
       to tm_B_1_645;
       length 16.35;
       configuration trip_line_config;
       groupid Triplex_Line;
}

object triplex_meter {
       name tm_B_1_645;
       phases BS;
       nominal_voltage 120;
       groupid House_Meter;
}

object house {
     parent tm_B_1_645;
     name house1B_tm_B_1_645;
     floor_area 1716;
     schedule_skew 722;
     heating_system_type GAS;
     cooling_system_type ELECTRIC;
     cooling_setpoint cooling7*1;
     heating_setpoint heating3*1;
     thermal_integrity_level 5;
     air_temperature 70;
     mass_temperature 70;
     cooling_COP 2.5;
     object ZIPload {
           base_power LIGHTS*0.97;
           schedule_skew 722;
           heatgain_fraction 0.9;
           power_pf 1.000;
           current_pf 1.000;
           impedance_pf 1.000;
           impedance_fraction 0.300000;
           current_fraction 0.300000;
           power_fraction 0.400000;
     };
}

object triplex_line {
       name tl_B_2_645;
       phases BS;
       from tn_B_645;
       to tm_B_2_645;
       length 13.90;
       configuration trip_line_config;
       groupid Triplex_Line;
}

object triplex_meter {
       name tm_B_2_645;
       phases BS;
       nominal_voltage 120;
       groupid House_Meter;
}

object house {
     parent tm_B_2_645;
     name house2B_tm_B_2_645;
     floor_area 2339;
     schedule_skew 2406;
     heating_system_type HEAT_PUMP;
     heating_COP 3.0;
     cooling_system_type ELECTRIC;
     cooling_setpoint cooling3*1;
     heating_setpoint heating4*1;
     thermal_integrity_level 6;
     air_temperature 70;
     mass_temperature 70;
     cooling_COP 2.6;
     object ZIPload {
           base_power LIGHTS*1.29;
           schedule_skew 2406;
           heatgain_fraction 0.9;
           power_pf 1.000;
           current_pf 1.000;
           impedance_pf 1.000;
           impedance_fraction 0.300000;
           current_fraction 0.300000;
           power_fraction 0.400000;
     };
     object waterheater {
          schedule_skew 2406;
          tank_volume 50;
          heating_element_capacity 4.8 kW;
          tank_setpoint 133.7;
          temperature 135;
          thermostat_deadband 3.9;
          location INSIDE;
          tank_UA 3.7;
          demand water14*1;
     };

}

object triplex_line {
       name tl_B_3_645;
       phases BS;
       from tn_B_645;
       to tm_B_3_645;
       length 17.80;
       configuration trip_line_config;
       groupid Triplex_Line;
}

object triplex_meter {
       name tm_B_3_645;
       phases BS;
       nominal_voltage 120;
       groupid House_Meter;
}

object house {
     parent tm_B_3_645;
     name house3B_tm_B_3_645;
     floor_area 2236;
     schedule_skew 1870;
     heating_system_type GAS;
     cooling_system_type ELECTRIC;
     cooling_setpoint cooling7*1;
     heating_setpoint heating2*1;
     thermal_integrity_level 4;
     air_temperature 70;
     mass_temperature 70;
     cooling_COP 3.2;
     object ZIPload {
           base_power LIGHTS*0.99;
           schedule_skew 1870;
           heatgain_fraction 0.9;
           power_pf 1.000;
           current_pf 1.000;
           impedance_pf 1.000;
           impedance_fraction 0.300000;
           current_fraction 0.300000;
           power_fraction 0.400000;
     };
}

object triplex_line {
       name tl_B_4_645;
       phases BS;
       from tn_B_645;
       to tm_B_4_645;
       length 15.52;
       configuration trip_line_config;
       groupid Triplex_Line;
}

object triplex_meter {
       name tm_B_4_645;
       phases BS;
       nominal_voltage 120;
       groupid House_Meter;
}

object house {
     parent tm_B_4_645;
     name house4B_tm_B_4_645;
     floor_area 2691;
     schedule_skew 2138;
     heating_system_type HEAT_PUMP;
     heating_COP 3.5;
     cooling_system_type ELECTRIC;
     cooling_setpoint cooling4*1;
     heating_setpoint heating7*1;
     thermal_integrity_level 5;
     air_temperature 70;
     mass_temperature 70;
     cooling_COP 3.7;
     object ZIPload {
           base_power LIGHTS*1.51;
           schedule_skew 2138;
           heatgain_fraction 0.9;
           power_pf 1.000;
           current_pf 1.000;
           impedance_pf 1.000;
           impedance_fraction 0.300000;
           current_fraction 0.300000;
           power_fraction 0.400000;
     };
     object waterheater {
          schedule_skew 2138;
          tank_volume 50;
          heating_element_capacity 4.4 kW;
          tank_setpoint 135.3;
          temperature 135;
          thermostat_deadband 4.8;
          location INSIDE;
          tank_UA 3.3;
          demand water11*1;
     };

}

object triplex_line {
       name tl_B_5_645;
       phases BS;
       from tn_B_645;
       to tm_B_5_645;
       length 14.44;
       configuration trip_line_config;
       groupid Triplex_Line;
}

object triplex_meter {
       name tm_B_5_645;
       phases BS;
       nominal_voltage 120;
       groupid House_Meter;
}

object house {
     parent tm_B_5_645;
     name house5B_tm_B_5_645;
     floor_area 2059;
     schedule_skew 185;
     heating_system_type HEAT_PUMP;
     heating_COP 3.0;
     cooling_system_type ELECTRIC;
     cooling_setpoint cooling2*1;
     heating_setpoint heating4*1;
     thermal_integrity_level 5;
     air_temperature 70;
     mass_temperature 70;
     cooling_COP 3.4;
     object ZIPload {
           base_power LIGHTS*0.80;
           schedule_skew 185;
           heatgain_fraction 0.9;
           power_pf 1.000;
           current_pf 1.000;
           impedance_pf 1.000;
           impedance_fraction 0.300000;
           current_fraction 0.300000;
           power_fraction 0.400000;
     };
     object waterheater {
          schedule_skew 185;
          tank_volume 50;
          heating_element_capacity 4.1 kW;
          tank_setpoint 137.2;
          temperature 135;
          thermostat_deadband 4.8;
          location INSIDE;
          tank_UA 3.1;
          demand water3*1;
     };

}

object triplex_line {
       name tl_B_6_645;
       phases BS;
       from tn_B_645;
       to tm_B_6_645;
       length 19.10;
       configuration trip_line_config;
       groupid Triplex_Line;
}

object triplex_meter {
       name tm_B_6_645;
       phases BS;
       nominal_voltage 120;
       groupid House_Meter;
}

object house {
     parent tm_B_6_645;
     name house6B_tm_B_6_645;
     floor_area 1936;
     schedule_skew 2754;
     heating_system_type HEAT_PUMP;
     heating_COP 2.7;
     cooling_system_type ELECTRIC;
     cooling_setpoint cooling1*1;
     heating_setpoint heating5*1;
     thermal_integrity_level 5;
     air_temperature 70;
     mass_temperature 70;
     cooling_COP 2.7;
     object ZIPload {
           base_power LIGHTS*1.11;
           schedule_skew 2754;
           heatgain_fraction 0.9;
           power_pf 1.000;
           current_pf 1.000;
           impedance_pf 1.000;
           impedance_fraction 0.300000;
           current_fraction 0.300000;
           power_fraction 0.400000;
     };
     object waterheater {
          schedule_skew 2754;
          tank_volume 50;
          heating_element_capacity 4.6 kW;
          tank_setpoint 140.0;
          temperature 135;
          thermostat_deadband 4.9;
          location INSIDE;
          tank_UA 3.3;
          demand water20*1;
     };

}

object triplex_line {
       name tl_B_7_645;
       phases BS;
       from tn_B_645;
       to tm_B_7_645;
       length 19.90;
       configuration trip_line_config;
       groupid Triplex_Line;
}

object triplex_meter {
       name tm_B_7_645;
       phases BS;
       nominal_voltage 120;
       groupid House_Meter;
}

object house {
     parent tm_B_7_645;
     name house7B_tm_B_7_645;
     floor_area 1738;
     schedule_skew 238;
     heating_system_type HEAT_PUMP;
     heating_COP 2.7;
     cooling_system_type ELECTRIC;
     cooling_setpoint cooling1*1;
     heating_setpoint heating8*1;
     thermal_integrity_level 4;
     air_temperature 70;
     mass_temperature 70;
     cooling_COP 2.9;
     object ZIPload {
           base_power LIGHTS*0.76;
           schedule_skew 238;
           heatgain_fraction 0.9;
           power_pf 1.000;
           current_pf 1.000;
           impedance_pf 1.000;
           impedance_fraction 0.300000;
           current_fraction 0.300000;
           power_fraction 0.400000;
     };
     object waterheater {
          schedule_skew 238;
          tank_volume 50;
          heating_element_capacity 4.5 kW;
          tank_setpoint 128.8;
          temperature 135;
          thermostat_deadband 5.7;
          location INSIDE;
          tank_UA 2.9;
          demand water19*1;
     };

}

object triplex_line {
       name tl_B_8_645;
       phases BS;
       from tn_B_645;
       to tm_B_8_645;
       length 19.22;
       configuration trip_line_config;
       groupid Triplex_Line;
}

object triplex_meter {
       name tm_B_8_645;
       phases BS;
       nominal_voltage 120;
       groupid House_Meter;
}

object house {
     parent tm_B_8_645;
     name house8B_tm_B_8_645;
     floor_area 2481;
     schedule_skew 534;
     heating_system_type GAS;
     cooling_system_type ELECTRIC;
     cooling_setpoint cooling3*1;
     heating_setpoint heating1*1;
     thermal_integrity_level 4;
     air_temperature 70;
     mass_temperature 70;
     cooling_COP 3.8;
     object ZIPload {
           base_power LIGHTS*1.02;
           schedule_skew 534;
           heatgain_fraction 0.9;
           power_pf 1.000;
           current_pf 1.000;
           impedance_pf 1.000;
           impedance_fraction 0.300000;
           current_fraction 0.300000;
           power_fraction 0.400000;
     };
}

object triplex_line {
       name tl_B_9_645;
       phases BS;
       from tn_B_645;
       to tm_B_9_645;
       length 17.23;
       configuration trip_line_config;
       groupid Triplex_Line;
}

object triplex_meter {
       name tm_B_9_645;
       phases BS;
       nominal_voltage 120;
       groupid House_Meter;
}

object house {
     parent tm_B_9_645;
     name house9B_tm_B_9_645;
     floor_area 1909;
     schedule_skew -437;
     heating_system_type GAS;
     cooling_system_type ELECTRIC;
     cooling_setpoint cooling1*1;
     heating_setpoint heating8*1;
     thermal_integrity_level 3;
     air_temperature 70;
     mass_temperature 70;
     cooling_COP 3.1;
     object ZIPload {
           base_power LIGHTS*0.87;
           schedule_skew -437;
           heatgain_fraction 0.9;
           power_pf 1.000;
           current_pf 1.000;
           impedance_pf 1.000;
           impedance_fraction 0.300000;
           current_fraction 0.300000;
           power_fraction 0.400000;
     };
}

object triplex_line {
       name tl_B_10_645;
       phases BS;
       from tn_B_645;
       to tm_B_10_645;
       length 11.23;
       configuration trip_line_config;
       groupid Triplex_Line;
}

object triplex_meter {
       name tm_B_10_645;
       phases BS;
       nominal_voltage 120;
       groupid House_Meter;
}

object house {
     parent tm_B_10_645;
     name house10B_tm_B_10_645;
     floor_area 2174;
     schedule_skew -395;
     heating_system_type HEAT_PUMP;
     heating_COP 2.5;
     cooling_system_type ELECTRIC;
     cooling_setpoint cooling6*1;
     heating_setpoint heating8*1;
     thermal_integrity_level 3;
     air_temperature 70;
     mass_temperature 70;
     cooling_COP 2.8;
     object ZIPload {
           base_power LIGHTS*1.34;
           schedule_skew -395;
           heatgain_fraction 0.9;
           power_pf 1.000;
           current_pf 1.000;
           impedance_pf 1.000;
           impedance_fraction 0.300000;
           current_fraction 0.300000;
           power_fraction 0.400000;
     };
     object waterheater {
          schedule_skew -395;
          tank_volume 50;
          heating_element_capacity 4.7 kW;
          tank_setpoint 130.8;
          temperature 135;
          thermostat_deadband 2.1;
          location INSIDE;
          tank_UA 2.1;
          demand water11*1;
     };

}

object triplex_line {
       name tl_B_11_645;
       phases BS;
       from tn_B_645;
       to tm_B_11_645;
       length 10.89;
       configuration trip_line_config;
       groupid Triplex_Line;
}

object triplex_meter {
       name tm_B_11_645;
       phases BS;
       nominal_voltage 120;
       groupid House_Meter;
}

object house {
     parent tm_B_11_645;
     name house11B_tm_B_11_645;
     floor_area 2288;
     schedule_skew 577;
     heating_system_type HEAT_PUMP;
     heating_COP 2.1;
     cooling_system_type ELECTRIC;
     cooling_setpoint cooling1*1;
     heating_setpoint heating8*1;
     thermal_integrity_level 5;
     air_temperature 70;
     mass_temperature 70;
     cooling_COP 2.9;
     object ZIPload {
           base_power LIGHTS*1.22;
           schedule_skew 577;
           heatgain_fraction 0.9;
           power_pf 1.000;
           current_pf 1.000;
           impedance_pf 1.000;
           impedance_fraction 0.300000;
           current_fraction 0.300000;
           power_fraction 0.400000;
     };
     object waterheater {
          schedule_skew 577;
          tank_volume 50;
          heating_element_capacity 4.8 kW;
          tank_setpoint 120.8;
          temperature 135;
          thermostat_deadband 3.0;
          location INSIDE;
          tank_UA 3.4;
          demand water12*1;
     };

}

object triplex_line {
       name tl_B_12_645;
       phases BS;
       from tn_B_645;
       to tm_B_12_645;
       length 13.36;
       configuration trip_line_config;
       groupid Triplex_Line;
}

object triplex_meter {
       name tm_B_12_645;
       phases BS;
       nominal_voltage 120;
       groupid House_Meter;
}

object house {
     parent tm_B_12_645;
     name house12B_tm_B_12_645;
     floor_area 2522;
     schedule_skew 2037;
     heating_system_type HEAT_PUMP;
     heating_COP 2.1;
     cooling_system_type ELECTRIC;
     cooling_setpoint cooling8*1;
     heating_setpoint heating5*1;
     thermal_integrity_level 6;
     air_temperature 70;
     mass_temperature 70;
     cooling_COP 3.3;
     object ZIPload {
           base_power LIGHTS*1.65;
           schedule_skew 2037;
           heatgain_fraction 0.9;
           power_pf 1.000;
           current_pf 1.000;
           impedance_pf 1.000;
           impedance_fraction 0.300000;
           current_fraction 0.300000;
           power_fraction 0.400000;
     };
     object waterheater {
          schedule_skew 2037;
          tank_volume 50;
          heating_element_capacity 5.1 kW;
          tank_setpoint 121.0;
          temperature 135;
          thermostat_deadband 3.8;
          location INSIDE;
          tank_UA 3.0;
          demand water12*1;
     };

}

object triplex_line {
       name tl_B_13_645;
       phases BS;
       from tn_B_645;
       to tm_B_13_645;
       length 10.32;
       configuration trip_line_config;
       groupid Triplex_Line;
}

object triplex_meter {
       name tm_B_13_645;
       phases BS;
       nominal_voltage 120;
       groupid House_Meter;
}

object house {
     parent tm_B_13_645;
     name house13B_tm_B_13_645;
     floor_area 1955;
     schedule_skew -1566;
     heating_system_type GAS;
     cooling_system_type ELECTRIC;
     cooling_setpoint cooling6*1;
     heating_setpoint heating4*1;
     thermal_integrity_level 6;
     air_temperature 70;
     mass_temperature 70;
     cooling_COP 3.6;
     object ZIPload {
           base_power LIGHTS*1.07;
           schedule_skew -1566;
           heatgain_fraction 0.9;
           power_pf 1.000;
           current_pf 1.000;
           impedance_pf 1.000;
           impedance_fraction 0.300000;
           current_fraction 0.300000;
           power_fraction 0.400000;
     };
}

object triplex_line {
       name tl_B_14_645;
       phases BS;
       from tn_B_645;
       to tm_B_14_645;
       length 11.91;
       configuration trip_line_config;
       groupid Triplex_Line;
}

object triplex_meter {
       name tm_B_14_645;
       phases BS;
       nominal_voltage 120;
       groupid House_Meter;
}

object house {
     parent tm_B_14_645;
     name house14B_tm_B_14_645;
     floor_area 1876;
     schedule_skew 1100;
     heating_system_type HEAT_PUMP;
     heating_COP 3.4;
     cooling_system_type ELECTRIC;
     cooling_setpoint cooling8*1;
     heating_setpoint heating3*1;
     thermal_integrity_level 5;
     air_temperature 70;
     mass_temperature 70;
     cooling_COP 2.6;
     object ZIPload {
           base_power LIGHTS*0.95;
           schedule_skew 1100;
           heatgain_fraction 0.9;
           power_pf 1.000;
           current_pf 1.000;
           impedance_pf 1.000;
           impedance_fraction 0.300000;
           current_fraction 0.300000;
           power_fraction 0.400000;
     };
     object waterheater {
          schedule_skew 1100;
          tank_volume 50;
          heating_element_capacity 4.3 kW;
          tank_setpoint 136.3;
          temperature 135;
          thermostat_deadband 2.1;
          location INSIDE;
          tank_UA 2.7;
          demand water16*1;
     };

}

object triplex_line {
       name tl_B_15_645;
       phases BS;
       from tn_B_645;
       to tm_B_15_645;
       length 12.46;
       configuration trip_line_config;
       groupid Triplex_Line;
}

object triplex_meter {
       name tm_B_15_645;
       phases BS;
       nominal_voltage 120;
       groupid House_Meter;
}

object house {
     parent tm_B_15_645;
     name house15B_tm_B_15_645;
     floor_area 1806;
     schedule_skew 3355;
     heating_system_type HEAT_PUMP;
     heating_COP 3.2;
     cooling_system_type ELECTRIC;
     cooling_setpoint cooling4*1;
     heating_setpoint heating7*1;
     thermal_integrity_level 5;
     air_temperature 70;
     mass_temperature 70;
     cooling_COP 3.9;
     object ZIPload {
           base_power LIGHTS*1.04;
           schedule_skew 3355;
           heatgain_fraction 0.9;
           power_pf 1.000;
           current_pf 1.000;
           impedance_pf 1.000;
           impedance_fraction 0.300000;
           current_fraction 0.300000;
           power_fraction 0.400000;
     };
     object waterheater {
          schedule_skew 3355;
          tank_volume 50;
          heating_element_capacity 4.7 kW;
          tank_setpoint 136.3;
          temperature 135;
          thermostat_deadband 4.2;
          location INSIDE;
          tank_UA 3.2;
          demand water1*1;
     };

}

object triplex_line {
       name tl_B_16_645;
       phases BS;
       from tn_B_645;
       to tm_B_16_645;
       length 11.14;
       configuration trip_line_config;
       groupid Triplex_Line;
}

object triplex_meter {
       name tm_B_16_645;
       phases BS;
       nominal_voltage 120;
       groupid House_Meter;
}

object house {
     parent tm_B_16_645;
     name house16B_tm_B_16_645;
     floor_area 1670;
     schedule_skew -957;
     heating_system_type HEAT_PUMP;
     heating_COP 2.6;
     cooling_system_type ELECTRIC;
     cooling_setpoint cooling3*1;
     heating_setpoint heating8*1;
     thermal_integrity_level 4;
     air_temperature 70;
     mass_temperature 70;
     cooling_COP 3.5;
     object ZIPload {
           base_power LIGHTS*0.82;
           schedule_skew -957;
           heatgain_fraction 0.9;
           power_pf 1.000;
           current_pf 1.000;
           impedance_pf 1.000;
           impedance_fraction 0.300000;
           current_fraction 0.300000;
           power_fraction 0.400000;
     };
     object waterheater {
          schedule_skew -957;
          tank_volume 50;
          heating_element_capacity 4.8 kW;
          tank_setpoint 135.6;
          temperature 135;
          thermostat_deadband 2.4;
          location INSIDE;
          tank_UA 2.9;
          demand water20*1;
     };

}

object triplex_line {
       name tl_B_17_645;
       phases BS;
       from tn_B_645;
       to tm_B_17_645;
       length 10.34;
       configuration trip_line_config;
       groupid Triplex_Line;
}

object triplex_meter {
       name tm_B_17_645;
       phases BS;
       nominal_voltage 120;
       groupid House_Meter;
}

object house {
     parent tm_B_17_645;
     name house17B_tm_B_17_645;
     floor_area 2042;
     schedule_skew -1391;
     heating_system_type HEAT_PUMP;
     heating_COP 2.9;
     cooling_system_type ELECTRIC;
     cooling_setpoint cooling5*1;
     heating_setpoint heating4*1;
     thermal_integrity_level 6;
     air_temperature 70;
     mass_temperature 70;
     cooling_COP 3.7;
     object ZIPload {
           base_power LIGHTS*1.55;
           schedule_skew -1391;
           heatgain_fraction 0.9;
           power_pf 1.000;
           current_pf 1.000;
           impedance_pf 1.000;
           impedance_fraction 0.300000;
           current_fraction 0.300000;
           power_fraction 0.400000;
     };
     object waterheater {
          schedule_skew -1391;
          tank_volume 50;
          heating_element_capacity 4.3 kW;
          tank_setpoint 139.0;
          temperature 135;
          thermostat_deadband 3.1;
          location INSIDE;
          tank_UA 3.3;
          demand water11*1;
     };

}

object triplex_line {
       name tl_B_18_645;
       phases BS;
       from tn_B_645;
       to tm_B_18_645;
       length 11.36;
       configuration trip_line_config;
       groupid Triplex_Line;
}

object triplex_meter {
       name tm_B_18_645;
       phases BS;
       nominal_voltage 120;
       groupid House_Meter;
}

object house {
     parent tm_B_18_645;
     name house18B_tm_B_18_645;
     floor_area 1913;
     schedule_skew 2214;
     heating_system_type HEAT_PUMP;
     heating_COP 2.0;
     cooling_system_type ELECTRIC;
     cooling_setpoint cooling5*1;
     heating_setpoint heating5*1;
     thermal_integrity_level 3;
     air_temperature 70;
     mass_temperature 70;
     cooling_COP 2.5;
     object ZIPload {
           base_power LIGHTS*1.02;
           schedule_skew 2214;
           heatgain_fraction 0.9;
           power_pf 1.000;
           current_pf 1.000;
           impedance_pf 1.000;
           impedance_fraction 0.300000;
           current_fraction 0.300000;
           power_fraction 0.400000;
     };
     object waterheater {
          schedule_skew 2214;
          tank_volume 50;
          heating_element_capacity 4.5 kW;
          tank_setpoint 134.8;
          temperature 135;
          thermostat_deadband 2.1;
          location INSIDE;
          tank_UA 2.3;
          demand water19*1;
     };

}

object triplex_line {
       name tl_B_19_645;
       phases BS;
       from tn_B_645;
       to tm_B_19_645;
       length 13.17;
       configuration trip_line_config;
       groupid Triplex_Line;
}

object triplex_meter {
       name tm_B_19_645;
       phases BS;
       nominal_voltage 120;
       groupid House_Meter;
}

object house {
     parent tm_B_19_645;
     name house19B_tm_B_19_645;
     floor_area 2055;
     schedule_skew -3393;
     heating_system_type HEAT_PUMP;
     heating_COP 2.9;
     cooling_system_type ELECTRIC;
     cooling_setpoint cooling1*1;
     heating_setpoint heating1*1;
     thermal_integrity_level 4;
     air_temperature 70;
     mass_temperature 70;
     cooling_COP 3.1;
     object ZIPload {
           base_power LIGHTS*1.17;
           schedule_skew -3393;
           heatgain_fraction 0.9;
           power_pf 1.000;
           current_pf 1.000;
           impedance_pf 1.000;
           impedance_fraction 0.300000;
           current_fraction 0.300000;
           power_fraction 0.400000;
     };
     object waterheater {
          schedule_skew -3393;
          tank_volume 50;
          heating_element_capacity 4.9 kW;
          tank_setpoint 142.0;
          temperature 135;
          thermostat_deadband 2.6;
          location INSIDE;
          tank_UA 2.8;
          demand water7*1;
     };

}

object triplex_line {
       name tl_B_20_645;
       phases BS;
       from tn_B_645;
       to tm_B_20_645;
       length 13.89;
       configuration trip_line_config;
       groupid Triplex_Line;
}

object triplex_meter {
       name tm_B_20_645;
       phases BS;
       nominal_voltage 120;
       groupid House_Meter;
}

object house {
     parent tm_B_20_645;
     name house20B_tm_B_20_645;
     floor_area 2397;
     schedule_skew -2173;
     heating_system_type HEAT_PUMP;
     heating_COP 2.5;
     cooling_system_type ELECTRIC;
     cooling_setpoint cooling3*1;
     heating_setpoint heating5*1;
     thermal_integrity_level 4;
     air_temperature 70;
     mass_temperature 70;
     cooling_COP 3.3;
     object ZIPload {
           base_power LIGHTS*1.62;
           schedule_skew -2173;
           heatgain_fraction 0.9;
           power_pf 1.000;
           current_pf 1.000;
           impedance_pf 1.000;
           impedance_fraction 0.300000;
           current_fraction 0.300000;
           power_fraction 0.400000;
     };
     object waterheater {
          schedule_skew -2173;
          tank_volume 50;
          heating_element_capacity 4.5 kW;
          tank_setpoint 129.9;
          temperature 135;
          thermostat_deadband 4.9;
          location INSIDE;
          tank_UA 3.0;
          demand water8*1;
     };

}

object triplex_line {
       name tl_B_21_645;
       phases BS;
       from tn_B_645;
       to tm_B_21_645;
       length 11.53;
       configuration trip_line_config;
       groupid Triplex_Line;
}

object triplex_meter {
       name tm_B_21_645;
       phases BS;
       nominal_voltage 120;
       groupid House_Meter;
}

object house {
     parent tm_B_21_645;
     name house21B_tm_B_21_645;
     floor_area 1707;
     schedule_skew 1965;
     heating_system_type GAS;
     cooling_system_type ELECTRIC;
     cooling_setpoint cooling6*1;
     heating_setpoint heating4*1;
     thermal_integrity_level 4;
     air_temperature 70;
     mass_temperature 70;
     cooling_COP 2.9;
     object ZIPload {
           base_power LIGHTS*0.75;
           schedule_skew 1965;
           heatgain_fraction 0.9;
           power_pf 1.000;
           current_pf 1.000;
           impedance_pf 1.000;
           impedance_fraction 0.300000;
           current_fraction 0.300000;
           power_fraction 0.400000;
     };
}

object triplex_line {
       name tl_B_22_645;
       phases BS;
       from tn_B_645;
       to tm_B_22_645;
       length 19.61;
       configuration trip_line_config;
       groupid Triplex_Line;
}

object triplex_meter {
       name tm_B_22_645;
       phases BS;
       nominal_voltage 120;
       groupid House_Meter;
}

object house {
     parent tm_B_22_645;
     name house22B_tm_B_22_645;
     floor_area 2107;
     schedule_skew 1793;
     heating_system_type HEAT_PUMP;
     heating_COP 2.1;
     cooling_system_type ELECTRIC;
     cooling_setpoint cooling1*1;
     heating_setpoint heating8*1;
     thermal_integrity_level 6;
     air_temperature 70;
     mass_temperature 70;
     cooling_COP 3.4;
     object ZIPload {
           base_power LIGHTS*1.05;
           schedule_skew 1793;
           heatgain_fraction 0.9;
           power_pf 1.000;
           current_pf 1.000;
           impedance_pf 1.000;
           impedance_fraction 0.300000;
           current_fraction 0.300000;
           power_fraction 0.400000;
     };
     object waterheater {
          schedule_skew 1793;
          tank_volume 50;
          heating_element_capacity 4.7 kW;
          tank_setpoint 142.6;
          temperature 135;
          thermostat_deadband 5.7;
          location INSIDE;
          tank_UA 2.3;
          demand water16*1;
     };

}

object transformer {
       name CTTF_B_646;
       phases BS;
       from 646;
       to tn_B_646;
       configuration object transformer_configuration {
            connect_type SINGLE_PHASE_CENTER_TAPPED;
            install_type POLETOP;
            shunt_impedance 10000+10000j;
            primary_voltage 2401.777;
            secondary_voltage 120;
            powerB_rating 95 kVA;
            impedance 0.00033+0.0022j;
       };
       groupid Distribution_Trans;
}

object triplex_meter {
       name tn_B_646;
       phases BS;
       nominal_voltage 120;
}

object triplex_line {
       name tl_B_1_646;
       phases BS;
       from tn_B_646;
       to tm_B_1_646;
       length 18.77;
       configuration trip_line_config;
       groupid Triplex_Line;
}

object triplex_meter {
       name tm_B_1_646;
       phases BS;
       nominal_voltage 120;
       groupid House_Meter;
}

object house {
     parent tm_B_1_646;
     name house1B_tm_B_1_646;
     floor_area 1836;
     schedule_skew 739;
     heating_system_type HEAT_PUMP;
     heating_COP 2.3;
     cooling_system_type ELECTRIC;
     cooling_setpoint cooling7*1;
     heating_setpoint heating6*1;
     thermal_integrity_level 5;
     air_temperature 70;
     mass_temperature 70;
     cooling_COP 3.8;
     object ZIPload {
           base_power LIGHTS*0.67;
           schedule_skew 739;
           heatgain_fraction 0.9;
           power_pf 1.000;
           current_pf 1.000;
           impedance_pf 1.000;
           impedance_fraction 0.300000;
           current_fraction 0.300000;
           power_fraction 0.400000;
     };
     object waterheater {
          schedule_skew 739;
          tank_volume 50;
          heating_element_capacity 4.2 kW;
          tank_setpoint 141.6;
          temperature 135;
          thermostat_deadband 4.7;
          location INSIDE;
          tank_UA 3.2;
          demand water19*1;
     };

}

object triplex_line {
       name tl_B_2_646;
       phases BS;
       from tn_B_646;
       to tm_B_2_646;
       length 13.77;
       configuration trip_line_config;
       groupid Triplex_Line;
}

object triplex_meter {
       name tm_B_2_646;
       phases BS;
       nominal_voltage 120;
       groupid House_Meter;
}

object house {
     parent tm_B_2_646;
     name house2B_tm_B_2_646;
     floor_area 2443;
     schedule_skew -3600;
     heating_system_type GAS;
     cooling_system_type ELECTRIC;
     cooling_setpoint cooling6*1;
     heating_setpoint heating3*1;
     thermal_integrity_level 3;
     air_temperature 70;
     mass_temperature 70;
     cooling_COP 3.6;
     object ZIPload {
           base_power LIGHTS*1.51;
           schedule_skew -3600;
           heatgain_fraction 0.9;
           power_pf 1.000;
           current_pf 1.000;
           impedance_pf 1.000;
           impedance_fraction 0.300000;
           current_fraction 0.300000;
           power_fraction 0.400000;
     };
}

object triplex_line {
       name tl_B_3_646;
       phases BS;
       from tn_B_646;
       to tm_B_3_646;
       length 15.83;
       configuration trip_line_config;
       groupid Triplex_Line;
}

object triplex_meter {
       name tm_B_3_646;
       phases BS;
       nominal_voltage 120;
       groupid House_Meter;
}

object house {
     parent tm_B_3_646;
     name house3B_tm_B_3_646;
     floor_area 2286;
     schedule_skew -748;
     heating_system_type GAS;
     cooling_system_type ELECTRIC;
     cooling_setpoint cooling5*1;
     heating_setpoint heating4*1;
     thermal_integrity_level 4;
     air_temperature 70;
     mass_temperature 70;
     cooling_COP 3.1;
     object ZIPload {
           base_power LIGHTS*1.30;
           schedule_skew -748;
           heatgain_fraction 0.9;
           power_pf 1.000;
           current_pf 1.000;
           impedance_pf 1.000;
           impedance_fraction 0.300000;
           current_fraction 0.300000;
           power_fraction 0.400000;
     };
}

object triplex_line {
       name tl_B_4_646;
       phases BS;
       from tn_B_646;
       to tm_B_4_646;
       length 17.67;
       configuration trip_line_config;
       groupid Triplex_Line;
}

object triplex_meter {
       name tm_B_4_646;
       phases BS;
       nominal_voltage 120;
       groupid House_Meter;
}

object house {
     parent tm_B_4_646;
     name house4B_tm_B_4_646;
     floor_area 2645;
     schedule_skew -1102;
     heating_system_type HEAT_PUMP;
     heating_COP 3.1;
     cooling_system_type ELECTRIC;
     cooling_setpoint cooling3*1;
     heating_setpoint heating5*1;
     thermal_integrity_level 5;
     air_temperature 70;
     mass_temperature 70;
     cooling_COP 3.2;
     object ZIPload {
           base_power LIGHTS*1.70;
           schedule_skew -1102;
           heatgain_fraction 0.9;
           power_pf 1.000;
           current_pf 1.000;
           impedance_pf 1.000;
           impedance_fraction 0.300000;
           current_fraction 0.300000;
           power_fraction 0.400000;
     };
     object waterheater {
          schedule_skew -1102;
          tank_volume 50;
          heating_element_capacity 4.7 kW;
          tank_setpoint 131.0;
          temperature 135;
          thermostat_deadband 3.9;
          location INSIDE;
          tank_UA 2.1;
          demand water20*1;
     };

}

object triplex_line {
       name tl_B_5_646;
       phases BS;
       from tn_B_646;
       to tm_B_5_646;
       length 16.59;
       configuration trip_line_config;
       groupid Triplex_Line;
}

object triplex_meter {
       name tm_B_5_646;
       phases BS;
       nominal_voltage 120;
       groupid House_Meter;
}

object house {
     parent tm_B_5_646;
     name house5B_tm_B_5_646;
     floor_area 2163;
     schedule_skew 406;
     heating_system_type GAS;
     cooling_system_type ELECTRIC;
     cooling_setpoint cooling8*1;
     heating_setpoint heating3*1;
     thermal_integrity_level 5;
     air_temperature 70;
     mass_temperature 70;
     cooling_COP 3.2;
     object ZIPload {
           base_power LIGHTS*1.32;
           schedule_skew 406;
           heatgain_fraction 0.9;
           power_pf 1.000;
           current_pf 1.000;
           impedance_pf 1.000;
           impedance_fraction 0.300000;
           current_fraction 0.300000;
           power_fraction 0.400000;
     };
}

object triplex_line {
       name tl_B_6_646;
       phases BS;
       from tn_B_646;
       to tm_B_6_646;
       length 12.14;
       configuration trip_line_config;
       groupid Triplex_Line;
}

object triplex_meter {
       name tm_B_6_646;
       phases BS;
       nominal_voltage 120;
       groupid House_Meter;
}

object house {
     parent tm_B_6_646;
     name house6B_tm_B_6_646;
     floor_area 1425;
     schedule_skew -3060;
     heating_system_type GAS;
     cooling_system_type ELECTRIC;
     cooling_setpoint cooling1*1;
     heating_setpoint heating2*1;
     thermal_integrity_level 4;
     air_temperature 70;
     mass_temperature 70;
     cooling_COP 3.7;
     object ZIPload {
           base_power LIGHTS*0.62;
           schedule_skew -3060;
           heatgain_fraction 0.9;
           power_pf 1.000;
           current_pf 1.000;
           impedance_pf 1.000;
           impedance_fraction 0.300000;
           current_fraction 0.300000;
           power_fraction 0.400000;
     };
}

object triplex_line {
       name tl_B_7_646;
       phases BS;
       from tn_B_646;
       to tm_B_7_646;
       length 16.65;
       configuration trip_line_config;
       groupid Triplex_Line;
}

object triplex_meter {
       name tm_B_7_646;
       phases BS;
       nominal_voltage 120;
       groupid House_Meter;
}

object house {
     parent tm_B_7_646;
     name house7B_tm_B_7_646;
     floor_area 2235;
     schedule_skew -2453;
     heating_system_type HEAT_PUMP;
     heating_COP 2.8;
     cooling_system_type ELECTRIC;
     cooling_setpoint cooling6*1;
     heating_setpoint heating3*1;
     thermal_integrity_level 6;
     air_temperature 70;
     mass_temperature 70;
     cooling_COP 3.2;
     object ZIPload {
           base_power LIGHTS*1.34;
           schedule_skew -2453;
           heatgain_fraction 0.9;
           power_pf 1.000;
           current_pf 1.000;
           impedance_pf 1.000;
           impedance_fraction 0.300000;
           current_fraction 0.300000;
           power_fraction 0.400000;
     };
     object waterheater {
          schedule_skew -2453;
          tank_volume 50;
          heating_element_capacity 4.7 kW;
          tank_setpoint 131.4;
          temperature 135;
          thermostat_deadband 4.7;
          location INSIDE;
          tank_UA 3.3;
          demand water15*1;
     };

}

object triplex_line {
       name tl_B_8_646;
       phases BS;
       from tn_B_646;
       to tm_B_8_646;
       length 16.43;
       configuration trip_line_config;
       groupid Triplex_Line;
}

object triplex_meter {
       name tm_B_8_646;
       phases BS;
       nominal_voltage 120;
       groupid House_Meter;
}

object house {
     parent tm_B_8_646;
     name house8B_tm_B_8_646;
     floor_area 2212;
     schedule_skew -530;
     heating_system_type HEAT_PUMP;
     heating_COP 2.6;
     cooling_system_type ELECTRIC;
     cooling_setpoint cooling1*1;
     heating_setpoint heating7*1;
     thermal_integrity_level 4;
     air_temperature 70;
     mass_temperature 70;
     cooling_COP 3.3;
     object ZIPload {
           base_power LIGHTS*1.08;
           schedule_skew -530;
           heatgain_fraction 0.9;
           power_pf 1.000;
           current_pf 1.000;
           impedance_pf 1.000;
           impedance_fraction 0.300000;
           current_fraction 0.300000;
           power_fraction 0.400000;
     };
     object waterheater {
          schedule_skew -530;
          tank_volume 50;
          heating_element_capacity 4.7 kW;
          tank_setpoint 133.2;
          temperature 135;
          thermostat_deadband 3.9;
          location INSIDE;
          tank_UA 3.1;
          demand water11*1;
     };

}

object triplex_line {
       name tl_B_9_646;
       phases BS;
       from tn_B_646;
       to tm_B_9_646;
       length 12.38;
       configuration trip_line_config;
       groupid Triplex_Line;
}

object triplex_meter {
       name tm_B_9_646;
       phases BS;
       nominal_voltage 120;
       groupid House_Meter;
}

object house {
     parent tm_B_9_646;
     name house9B_tm_B_9_646;
     floor_area 1786;
     schedule_skew 1065;
     heating_system_type HEAT_PUMP;
     heating_COP 2.5;
     cooling_system_type ELECTRIC;
     cooling_setpoint cooling6*1;
     heating_setpoint heating2*1;
     thermal_integrity_level 5;
     air_temperature 70;
     mass_temperature 70;
     cooling_COP 2.9;
     object ZIPload {
           base_power LIGHTS*0.74;
           schedule_skew 1065;
           heatgain_fraction 0.9;
           power_pf 1.000;
           current_pf 1.000;
           impedance_pf 1.000;
           impedance_fraction 0.300000;
           current_fraction 0.300000;
           power_fraction 0.400000;
     };
     object waterheater {
          schedule_skew 1065;
          tank_volume 50;
          heating_element_capacity 4.4 kW;
          tank_setpoint 131.5;
          temperature 135;
          thermostat_deadband 2.5;
          location INSIDE;
          tank_UA 3.3;
          demand water10*1;
     };

}

object triplex_line {
       name tl_B_10_646;
       phases BS;
       from tn_B_646;
       to tm_B_10_646;
       length 10.21;
       configuration trip_line_config;
       groupid Triplex_Line;
}

object triplex_meter {
       name tm_B_10_646;
       phases BS;
       nominal_voltage 120;
       groupid House_Meter;
}

object house {
     parent tm_B_10_646;
     name house10B_tm_B_10_646;
     floor_area 1557;
     schedule_skew 2386;
     heating_system_type HEAT_PUMP;
     heating_COP 2.4;
     cooling_system_type ELECTRIC;
     cooling_setpoint cooling7*1;
     heating_setpoint heating5*1;
     thermal_integrity_level 5;
     air_temperature 70;
     mass_temperature 70;
     cooling_COP 2.7;
     object ZIPload {
           base_power LIGHTS*0.73;
           schedule_skew 2386;
           heatgain_fraction 0.9;
           power_pf 1.000;
           current_pf 1.000;
           impedance_pf 1.000;
           impedance_fraction 0.300000;
           current_fraction 0.300000;
           power_fraction 0.400000;
     };
     object waterheater {
          schedule_skew 2386;
          tank_volume 50;
          heating_element_capacity 4.1 kW;
          tank_setpoint 135.7;
          temperature 135;
          thermostat_deadband 5.3;
          location INSIDE;
          tank_UA 2.9;
          demand water16*1;
     };

}

object triplex_line {
       name tl_B_11_646;
       phases BS;
       from tn_B_646;
       to tm_B_11_646;
       length 19.98;
       configuration trip_line_config;
       groupid Triplex_Line;
}

object triplex_meter {
       name tm_B_11_646;
       phases BS;
       nominal_voltage 120;
       groupid House_Meter;
}

object house {
     parent tm_B_11_646;
     name house11B_tm_B_11_646;
     floor_area 2177;
     schedule_skew -1763;
     heating_system_type GAS;
     cooling_system_type ELECTRIC;
     cooling_setpoint cooling2*1;
     heating_setpoint heating3*1;
     thermal_integrity_level 3;
     air_temperature 70;
     mass_temperature 70;
     cooling_COP 2.6;
     object ZIPload {
           base_power LIGHTS*1.20;
           schedule_skew -1763;
           heatgain_fraction 0.9;
           power_pf 1.000;
           current_pf 1.000;
           impedance_pf 1.000;
           impedance_fraction 0.300000;
           current_fraction 0.300000;
           power_fraction 0.400000;
     };
}

object triplex_line {
       name tl_B_12_646;
       phases BS;
       from tn_B_646;
       to tm_B_12_646;
       length 18.56;
       configuration trip_line_config;
       groupid Triplex_Line;
}

object triplex_meter {
       name tm_B_12_646;
       phases BS;
       nominal_voltage 120;
       groupid House_Meter;
}

object house {
     parent tm_B_12_646;
     name house12B_tm_B_12_646;
     floor_area 2266;
     schedule_skew -3600;
     heating_system_type HEAT_PUMP;
     heating_COP 3.2;
     cooling_system_type ELECTRIC;
     cooling_setpoint cooling1*1;
     heating_setpoint heating4*1;
     thermal_integrity_level 2;
     air_temperature 70;
     mass_temperature 70;
     cooling_COP 3.1;
     object ZIPload {
           base_power LIGHTS*1.15;
           schedule_skew -3600;
           heatgain_fraction 0.9;
           power_pf 1.000;
           current_pf 1.000;
           impedance_pf 1.000;
           impedance_fraction 0.300000;
           current_fraction 0.300000;
           power_fraction 0.400000;
     };
     object waterheater {
          schedule_skew -3600;
          tank_volume 50;
          heating_element_capacity 4.9 kW;
          tank_setpoint 130.9;
          temperature 135;
          thermostat_deadband 2.7;
          location INSIDE;
          tank_UA 3.1;
          demand water1*1;
     };

}

object triplex_line {
       name tl_B_13_646;
       phases BS;
       from tn_B_646;
       to tm_B_13_646;
       length 16.27;
       configuration trip_line_config;
       groupid Triplex_Line;
}

object triplex_meter {
       name tm_B_13_646;
       phases BS;
       nominal_voltage 120;
       groupid House_Meter;
}

object house {
     parent tm_B_13_646;
     name house13B_tm_B_13_646;
     floor_area 1653;
     schedule_skew -622;
     heating_system_type GAS;
     cooling_system_type ELECTRIC;
     cooling_setpoint cooling5*1;
     heating_setpoint heating5*1;
     thermal_integrity_level 4;
     air_temperature 70;
     mass_temperature 70;
     cooling_COP 3.3;
     object ZIPload {
           base_power LIGHTS*1.35;
           schedule_skew -622;
           heatgain_fraction 0.9;
           power_pf 1.000;
           current_pf 1.000;
           impedance_pf 1.000;
           impedance_fraction 0.300000;
           current_fraction 0.300000;
           power_fraction 0.400000;
     };
}

object triplex_line {
       name tl_B_14_646;
       phases BS;
       from tn_B_646;
       to tm_B_14_646;
       length 12.26;
       configuration trip_line_config;
       groupid Triplex_Line;
}

object triplex_meter {
       name tm_B_14_646;
       phases BS;
       nominal_voltage 120;
       groupid House_Meter;
...